Package: MFtools
Title: This is a packages for reading MODFLOW and MT3DMS files
Version: 0.0.0.9002
Authors@R: person("Dan", "Puddephatt", email = "dan.puddephatt@ghd.com", role = c("aut", "cre"))
Description: This package is designed for reading MODFLOW and MT3DMS output
    files (i.e., .hds file, .ucn file, .dis file).
Imports:
    dplyr,
    magrittr,
    tibble,
    tidyr,
    stringr, 
    readr
Depends:
    R (>= 3.3.0),
    dplyr, 
    magrittr,
    tibble, 
    tidyr, 
    readr
License: What license is it under?
Encoding: UTF-8
LazyData: true
RoxygenNote: 5.0.1
