Package: MFtools
Title: This is a packages for reading MODFLOW and MT3DMS files
Version: 0.0.0.9004
Authors@R: person("Dan", "Puddephatt", email = "dan.puddephatt@ghd.com", role = c("aut", "cre"))
Description: This package is designed for reading MODFLOW and MT3DMS output
    files (i.e., .hds file, .ucn file, .dis file, .btn file, .lpf file, no_flow file, .wel file).
Imports:
    magrittr,
    tidyverse,
    stringr
Depends:
    R (>= 3.3.0),
    magrittr,
    tidyverse,
    stringr
License: MIT
Encoding: UTF-8
LazyData: true
RoxygenNote: 6.0.1
