Package: MFtools
Title: This is a package for reading MODFLOW and MT3DMS files
Version: 0.0.0.9007
Authors@R: person("Dan", "Puddephatt", email = "dpuddephatt@matrix-solutions.com", role = c("aut", "cre"))
Description: This package is designed for reading MODFLOW and MT3DMS output
    files (i.e., .hds file, .ucn file, .dis file, .btn file, .lpf file, no_flow
    file, .wel file).
Imports:
    magrittr,
    stringr,
    dplyr (>= 0.7.2),
    tibble (>= 1.3.1), 
    purrr (>= 0.2.3), 
    rlang,
    Rcpp,
    sf, 
    ggalt,
    ggrepel,
    MASS
License: MIT
Encoding: UTF-8
LazyData: true
RoxygenNote: 6.1.0
